<?xml version="1.0" encoding="UTF-8"?>

<!-- generated on 2021-09-17 15:01:02 by Eclipse SUMO netedit Version v1_9_2+0868-d9f13f272a
<configuration xmlns:xsi="http://www.w3.org/2001/XMLSchema-instance" xsi:noNamespaceSchemaLocation="http://sumo.dlr.de/xsd/netconvertConfiguration.xsd">

    <input>
        <sumo-net-file value="/Users/nlyamin/WRK/Simulation/SIVERT_Unity3D_git/Assets/Scenes/maps/lund_intersection_larger(veh_different)/osm_left.net.xml"/>
    </input>

    <output>
        <output-file value="/Users/nlyamin/WRK/Simulation/SIVERT_Unity3D_git/Assets/Scenes/maps/lund_intersection_larger(veh_different)/osm_left.net.xml"/>
        <output.street-names value="true"/>
    </output>

    <processing>
        <geometry.min-radius.fix.railways value="false"/>
        <geometry.max-grade.fix value="false"/>
        <offset.disable-normalization value="true"/>
        <lefthand value="false"/>
    </processing>

    <junctions>
        <no-turnarounds value="true"/>
        <junctions.corner-detail value="5"/>
        <junctions.limit-turn-speed value="-1"/>
        <rectangular-lane-cut value="false"/>
    </junctions>

    <pedestrian>
        <walkingareas value="false"/>
    </pedestrian>

    <report>
        <aggregate-warnings value="5"/>
    </report>

</configuration>
-->

<net version="1.9" junctionCornerDetail="5" xmlns:xsi="http://www.w3.org/2001/XMLSchema-instance" xsi:noNamespaceSchemaLocation="http://sumo.dlr.de/xsd/net_file.xsd">

    <location netOffset="-386620.62,-6174307.26" convBoundary="0.00,0.00,487.27,472.81" origBoundary="13.195719,55.701336,13.203568,55.705598" projParameter="+proj=utm +zone=33 +ellps=WGS84 +datum=WGS84 +units=m +no_defs"/>

    <type id="highway.bridleway" priority="1" numLanes="1" speed="2.78" allow="pedestrian" oneway="1" width="2.00"/>
    <type id="highway.bus_guideway" priority="1" numLanes="1" speed="8.33" allow="bus" oneway="1"/>
    <type id="highway.cycleway" priority="1" numLanes="1" speed="5.56" allow="bicycle" oneway="1" width="1.00"/>
    <type id="highway.footway" priority="1" numLanes="1" speed="2.78" allow="pedestrian" oneway="1" width="2.00"/>
    <type id="highway.ford" priority="1" numLanes="1" speed="2.78" allow="army" oneway="1"/>
    <type id="highway.living_street" priority="3" numLanes="1" speed="2.78" disallow="tram rail_urban rail rail_electric ship" oneway="1"/>
    <type id="highway.motorway" priority="13" numLanes="2" speed="44.44" allow="private emergency authority army vip passenger hov taxi bus coach delivery truck trailer motorcycle evehicle custom1 custom2" oneway="1"/>
    <type id="highway.motorway_link" priority="12" numLanes="1" speed="22.22" allow="private emergency authority army vip passenger hov taxi bus coach delivery truck trailer motorcycle evehicle custom1 custom2" oneway="1"/>
    <type id="highway.path" priority="1" numLanes="1" speed="2.78" allow="pedestrian bicycle" oneway="1" width="2.00"/>
    <type id="highway.pedestrian" priority="1" numLanes="1" speed="2.78" allow="pedestrian" oneway="1" width="2.00"/>
    <type id="highway.primary" priority="9" numLanes="2" speed="27.78" disallow="tram rail_urban rail rail_electric ship" oneway="1"/>
    <type id="highway.primary_link" priority="8" numLanes="1" speed="22.22" disallow="tram rail_urban rail rail_electric ship" oneway="1"/>
    <type id="highway.raceway" priority="14" numLanes="2" speed="83.33" allow="vip" oneway="1"/>
    <type id="highway.residential" priority="4" numLanes="1" speed="13.89" disallow="tram rail_urban rail rail_electric ship" oneway="1"/>
    <type id="highway.secondary" priority="7" numLanes="2" speed="27.78" disallow="tram rail_urban rail rail_electric ship" oneway="1"/>
    <type id="highway.secondary_link" priority="6" numLanes="1" speed="22.22" disallow="tram rail_urban rail rail_electric ship" oneway="1"/>
    <type id="highway.service" priority="2" numLanes="1" speed="5.56" allow="pedestrian delivery bicycle" oneway="1"/>
    <type id="highway.services" priority="1" numLanes="1" speed="8.33" disallow="tram rail_urban rail rail_electric ship" oneway="1"/>
    <type id="highway.stairs" priority="1" numLanes="1" speed="1.39" allow="pedestrian" oneway="1" width="2.00"/>
    <type id="highway.step" priority="1" numLanes="1" speed="1.39" allow="pedestrian" oneway="1" width="2.00"/>
    <type id="highway.steps" priority="1" numLanes="1" speed="1.39" allow="pedestrian" oneway="1" width="2.00"/>
    <type id="highway.tertiary" priority="6" numLanes="1" speed="22.22" disallow="tram rail_urban rail rail_electric ship" oneway="1"/>
    <type id="highway.tertiary_link" priority="5" numLanes="1" speed="22.22" disallow="tram rail_urban rail rail_electric ship" oneway="1"/>
    <type id="highway.track" priority="1" numLanes="1" speed="5.56" disallow="tram rail_urban rail rail_electric ship" oneway="1"/>
    <type id="highway.trunk" priority="11" numLanes="2" speed="27.78" disallow="pedestrian bicycle tram rail_urban rail rail_electric ship" oneway="1"/>
    <type id="highway.trunk_link" priority="10" numLanes="1" speed="22.22" disallow="pedestrian bicycle tram rail_urban rail rail_electric ship" oneway="1"/>
    <type id="highway.unclassified" priority="5" numLanes="1" speed="13.89" disallow="tram rail_urban rail rail_electric ship" oneway="1"/>
    <type id="highway.unsurfaced" priority="1" numLanes="1" speed="8.33" disallow="tram rail_urban rail rail_electric ship" oneway="1"/>
    <type id="railway.light_rail" priority="15" numLanes="1" speed="27.78" allow="rail_urban" oneway="1"/>
    <type id="railway.preserved" priority="15" numLanes="1" speed="27.78" allow="rail" oneway="1"/>
    <type id="railway.rail" priority="15" numLanes="1" speed="83.33" allow="rail rail_electric" oneway="1"/>
    <type id="railway.subway" priority="15" numLanes="1" speed="27.78" allow="rail_urban" oneway="1"/>
    <type id="railway.tram" priority="15" numLanes="1" speed="13.89" allow="tram" oneway="1"/>

    <edge id=":1025694359_0" function="internal">
        <lane id=":1025694359_0_0" index="0" disallow="tram rail_urban rail rail_electric rail_fast ship" speed="9.72" length="9.77" shape="335.52,149.97 334.55,147.79 332.95,146.32 330.72,145.57 327.87,145.53"/>
    </edge>
    <edge id=":1025694359_1" function="internal">
        <lane id=":1025694359_1_0" index="0" disallow="tram rail_urban rail rail_electric rail_fast ship" speed="11.11" length="14.54" shape="335.52,149.97 331.56,135.99"/>
    </edge>
    <edge id=":1025694359_2" function="internal">
        <lane id=":1025694359_2_0" index="0" disallow="tram rail_urban rail rail_electric rail_fast ship" speed="11.11" length="14.68" shape="334.62,135.05 338.62,149.17"/>
    </edge>
    <edge id=":1025694359_3" function="internal">
        <lane id=":1025694359_3_0" index="0" disallow="tram rail_urban rail rail_electric rail_fast ship" speed="9.72" length="6.39" shape="334.62,135.05 335.31,139.26 334.73,141.31"/>
    </edge>
    <edge id=":1025694359_6" function="internal">
        <lane id=":1025694359_6_0" index="0" disallow="tram rail_urban rail rail_electric rail_fast ship" speed="9.72" length="8.59" shape="334.73,141.31 334.41,142.42 331.93,144.51 327.87,145.53"/>
    </edge>
    <edge id=":1025694359_4" function="internal">
        <lane id=":1025694359_4_0" index="0" disallow="tram rail_urban rail rail_electric rail_fast ship" speed="14.05" length="9.12" shape="327.44,142.36 329.92,141.73 331.43,140.46 331.98,138.55 331.56,135.99"/>
    </edge>
    <edge id=":1025694359_5" function="internal">
        <lane id=":1025694359_5_0" index="0" disallow="tram rail_urban rail rail_electric rail_fast ship" speed="14.05" length="14.47" shape="327.44,142.36 331.58,142.43 334.82,143.59 337.17,145.84 338.62,149.17"/>
    </edge>
    <edge id=":126522852_0" function="internal">
        <lane id=":126522852_0_0" index="0" disallow="tram rail_urban rail rail_electric rail_fast ship" speed="8.33" length="7.81" shape="103.75,199.44 104.14,198.05 105.33,197.08 107.31,196.52 110.08,196.37"/>
    </edge>
    <edge id=":126522852_1" function="internal">
        <lane id=":126522852_1_0" index="0" disallow="tram rail_urban rail rail_electric rail_fast ship" speed="8.33" length="9.40" shape="100.68,196.19 110.08,196.37"/>
    </edge>
    <edge id=":126522852_2" function="internal">
        <lane id=":126522852_2_0" index="0" disallow="tram rail_urban rail rail_electric rail_fast ship" speed="8.33" length="7.79" shape="100.68,196.19 103.42,196.44 105.38,197.06 106.56,198.06 106.95,199.44"/>
    </edge>
    <edge id=":126522864_0" function="internal">
        <lane id=":126522864_0_0" index="0" disallow="tram rail_urban rail rail_electric rail_fast ship" speed="8.33" length="6.06" shape="221.94,195.10 221.99,196.90 222.06,198.13 222.17,199.36 222.38,201.15"/>
    </edge>
    <edge id=":126522864_1" function="internal">
        <lane id=":126522864_1_0" index="0" disallow="tram rail_urban rail rail_electric rail_fast ship" speed="8.33" length="5.07" shape="218.86,198.22 220.27,198.42 221.33,198.98 222.03,199.88 222.38,201.15"/>
    </edge>
    <edge id=":126522923_0" function="internal">
        <lane id=":126522923_0_0" index="0" disallow="tram rail_urban rail rail_electric rail_fast ship" speed="9.72" length="3.56" shape="345.93,233.40 345.73,232.36 345.30,231.64 344.64,231.23 343.75,231.15"/>
    </edge>
    <edge id=":126522923_1" function="internal">
        <lane id=":126522923_1_0" index="0" disallow="tram rail_urban rail rail_electric rail_fast ship" speed="11.11" length="11.29" shape="345.93,233.40 344.75,222.18"/>
    </edge>
    <edge id=":126522923_2" function="internal">
        <lane id=":126522923_2_0" index="0" disallow="tram rail_urban rail rail_electric rail_fast ship" speed="11.11" length="11.44" shape="347.93,221.79 349.12,233.17"/>
    </edge>
    <edge id=":126522923_3" function="internal">
        <lane id=":126522923_3_0" index="0" disallow="tram rail_urban rail rail_electric rail_fast ship" speed="9.72" length="7.45" shape="347.93,221.79 348.08,225.74 347.43,228.61 347.08,229.05"/>
    </edge>
    <edge id=":126522923_6" function="internal">
        <lane id=":126522923_6_0" index="0" disallow="tram rail_urban rail rail_electric rail_fast ship" speed="9.72" length="4.10" shape="347.08,229.05 345.99,230.41 343.75,231.15"/>
    </edge>
    <edge id=":126522923_4" function="internal">
        <lane id=":126522923_4_0" index="0" disallow="tram rail_urban rail rail_electric rail_fast ship" speed="9.72" length="6.39" shape="343.49,227.96 344.30,227.54 344.78,226.44 344.93,224.65 344.75,222.18"/>
    </edge>
    <edge id=":126522923_5" function="internal">
        <lane id=":126522923_5_0" index="0" disallow="tram rail_urban rail rail_electric rail_fast ship" speed="9.72" length="8.75" shape="343.49,227.96 345.80,228.14 347.51,229.06 348.61,230.74 349.12,233.17"/>
    </edge>
    <edge id=":126523025_0" function="internal">
        <lane id=":126523025_0_0" index="0" disallow="tram rail_urban rail rail_electric rail_fast ship" speed="11.11" length="4.37" shape="336.57,155.20 336.41,153.91 336.27,153.03 336.08,152.17 335.76,150.91"/>
    </edge>
    <edge id=":126523025_1" function="internal">
        <lane id=":126523025_1_0" index="0" allow="bicycle" speed="8.33" length="1.56" width="1.00" shape="337.67,155.07 337.79,153.83 337.98,153.57"/>
    </edge>
    <edge id=":126523025_6" function="internal">
        <lane id=":126523025_6_0" index="0" allow="bicycle" speed="8.33" length="4.37" width="1.00" shape="337.98,153.57 338.50,152.83 339.79,152.05 341.66,151.49"/>
    </edge>
    <edge id=":126523025_2" function="internal">
        <lane id=":126523025_2_0" index="0" allow="bicycle" speed="8.33" length="2.69" shape="341.86,152.47 341.33,152.71 340.98,153.15 340.82,153.81 340.84,154.68"/>
    </edge>
    <edge id=":126523025_3" function="internal">
        <lane id=":126523025_3_0" index="0" allow="bicycle" speed="8.33" length="7.88" shape="341.86,152.47 338.98,152.89 336.82,152.81 335.39,152.24 334.69,151.18"/>
    </edge>
    <edge id=":126523025_4" function="internal">
        <lane id=":126523025_4_0" index="0" allow="bicycle" speed="8.33" length="2.68" width="1.00" shape="339.92,149.84 340.22,150.66 340.60,151.21 341.09,151.49 341.66,151.49"/>
    </edge>
    <edge id=":126523025_5" function="internal">
        <lane id=":126523025_5_0" index="0" disallow="tram rail_urban rail rail_electric rail_fast ship" speed="11.11" length="4.79" shape="338.86,150.11 339.21,151.49 339.42,152.44 339.57,153.40 339.75,154.81"/>
    </edge>
    <edge id=":1293871639_0" function="internal">
        <lane id=":1293871639_0_0" index="0" allow="pedestrian bicycle" speed="2.78" length="5.19" width="2.00" shape="371.67,39.69 375.24,43.45"/>
    </edge>
    <edge id=":1293871639_1" function="internal">
        <lane id=":1293871639_1_0" index="0" allow="pedestrian bicycle" speed="2.78" length="4.63" width="2.00" shape="370.90,42.91 372.25,42.56 373.42,42.54 374.42,42.83 375.24,43.45"/>
    </edge>
    <edge id=":1293871642_0" function="internal">
        <lane id=":1293871642_0_0" index="0" allow="pedestrian bicycle" speed="2.78" length="4.82" width="2.00" shape="428.40,98.70 427.58,98.08 426.55,97.75 425.31,97.72 423.86,97.98"/>
    </edge>
    <edge id=":1293871642_1" function="internal">
        <lane id=":1293871642_1_0" index="0" allow="pedestrian bicycle" speed="2.78" length="4.40" width="2.00" shape="424.73,94.86 425.52,95.92 425.63,96.79 425.08,97.48 423.86,97.98"/>
    </edge>
    <edge id=":1293871649_0" function="internal">
        <lane id=":1293871649_0_0" index="0" allow="pedestrian bicycle" speed="2.78" length="5.00" width="2.00" shape="327.89,77.27 326.33,72.52"/>
    </edge>
    <edge id=":1293871649_1" function="internal">
        <lane id=":1293871649_1_0" index="0" allow="pedestrian bicycle" speed="2.78" length="4.03" width="2.00" shape="327.89,77.27 327.70,76.18 327.90,75.29 328.50,74.60 329.49,74.12"/>
    </edge>
    <edge id=":1293871653_0" function="internal">
        <lane id=":1293871653_0_0" index="0" allow="pedestrian bicycle" speed="2.78" length="5.22" width="2.00" shape="396.95,66.28 400.60,70.02"/>
    </edge>
    <edge id=":1293871653_1" function="internal">
        <lane id=":1293871653_1_0" index="0" allow="pedestrian bicycle" speed="2.78" length="4.69" width="2.00" shape="396.19,69.48 397.56,69.14 398.75,69.12 399.76,69.41 400.60,70.02"/>
    </edge>
    <edge id=":1293871657_0" function="internal">
        <lane id=":1293871657_0_0" index="0" allow="pedestrian bicycle" speed="2.78" length="5.17" width="2.00" shape="383.60,52.24 387.16,55.99"/>
    </edge>
    <edge id=":1293871657_1" function="internal">
        <lane id=":1293871657_1_0" index="0" allow="pedestrian bicycle" speed="2.78" length="4.60" width="2.00" shape="382.86,55.48 384.18,55.12 385.34,55.08 386.33,55.37 387.16,55.99"/>
    </edge>
    <edge id=":1293871669_0" function="internal">
        <lane id=":1293871669_0_0" index="0" allow="pedestrian bicycle" speed="2.78" length="5.00" width="2.00" shape="332.84,92.32 331.26,87.57"/>
    </edge>
    <edge id=":1293871669_1" function="internal">
        <lane id=":1293871669_1_0" index="0" allow="pedestrian bicycle" speed="2.78" length="4.05" width="2.00" shape="332.84,92.32 332.63,91.22 332.84,90.34 333.44,89.66 334.45,89.19"/>
    </edge>
    <edge id=":1293871674_0" function="internal">
        <lane id=":1293871674_0_0" index="0" allow="pedestrian bicycle" speed="2.78" length="5.27" width="2.00" shape="411.02,80.76 414.69,84.54"/>
    </edge>
    <edge id=":1293871674_1" function="internal">
        <lane id=":1293871674_1_0" index="0" allow="pedestrian bicycle" speed="2.78" length="4.78" width="2.00" shape="410.19,83.91 411.61,83.62 412.84,83.63 413.86,83.93 414.69,84.54"/>
    </edge>
    <edge id=":1293871687_0" function="internal">
        <lane id=":1293871687_0_0" index="0" allow="pedestrian bicycle" speed="2.78" length="5.01" width="2.00" shape="318.28,47.88 316.72,43.13"/>
    </edge>
    <edge id=":1293871687_1" function="internal">
        <lane id=":1293871687_1_0" index="0" allow="pedestrian bicycle" speed="2.78" length="4.11" width="2.00" shape="318.28,47.88 318.09,46.81 318.31,45.91 318.91,45.17 319.90,44.61"/>
    </edge>
    <edge id=":1293871695_0" function="internal">
        <lane id=":1293871695_0_0" index="0" allow="pedestrian bicycle" speed="2.78" length="5.16" width="2.00" shape="358.90,26.27 362.45,30.01"/>
    </edge>
    <edge id=":1293871695_1" function="internal">
        <lane id=":1293871695_1_0" index="0" allow="pedestrian bicycle" speed="2.78" length="4.59" width="2.00" shape="358.16,29.52 359.48,29.14 360.63,29.10 361.63,29.39 362.45,30.01"/>
    </edge>
    <edge id=":1293871712_0" function="internal">
        <lane id=":1293871712_0_0" index="0" allow="pedestrian bicycle" speed="2.78" length="5.00" width="2.00" shape="323.30,63.25 321.75,58.49"/>
    </edge>
    <edge id=":1293871712_1" function="internal">
        <lane id=":1293871712_1_0" index="0" allow="pedestrian bicycle" speed="2.78" length="4.09" width="2.00" shape="323.30,63.25 323.12,62.17 323.33,61.27 323.93,60.55 324.92,60.00"/>
    </edge>
    <edge id=":1713981612_0" function="internal">
        <lane id=":1713981612_0_0" index="0" allow="bicycle" speed="4.17" length="2.69" width="1.00" shape="343.68,154.16 343.46,153.31 343.11,152.74 342.65,152.44 342.06,152.43"/>
    </edge>
    <edge id=":1713981612_1" function="internal">
        <lane id=":1713981612_1_0" index="0" allow="pedestrian bicycle" speed="2.78" length="4.07" width="2.00" shape="344.18,154.08 344.14,152.96 344.47,152.08 345.15,151.46 346.18,151.09"/>
    </edge>
    <edge id=":1713981612_2" function="internal">
        <lane id=":1713981612_2_0" index="0" allow="bicycle" speed="4.17" length="4.03" width="2.00" shape="342.67,149.17 343.21,149.99 343.96,150.50 344.92,150.70 346.08,150.60"/>
    </edge>
    <edge id=":1713981612_3" function="internal">
        <lane id=":1713981612_3_0" index="0" allow="bicycle" speed="5.56" length="3.91" width="1.00" shape="342.67,149.17 343.12,150.46 343.17,151.43 342.81,152.09 342.06,152.43"/>
    </edge>
    <edge id=":1713981612_4" function="internal">
        <lane id=":1713981612_4_0" index="0" allow="bicycle" speed="4.17" length="4.30" width="2.00" shape="341.86,151.45 346.08,150.60"/>
    </edge>
    <edge id=":1765365768_0" function="internal">
        <lane id=":1765365768_0_0" index="0" allow="pedestrian delivery bicycle" speed="5.56" length="5.12" shape="107.14,64.91 106.25,64.87 105.16,65.14 103.88,65.71 102.41,66.58"/>
    </edge>
    <edge id=":1765365768_1" function="internal">
        <lane id=":1765365768_1_0" index="0" allow="pedestrian delivery bicycle" speed="5.56" length="10.17" shape="107.14,64.91 104.52,63.91 102.81,62.34 102.04,60.18 102.20,57.43"/>
    </edge>
    <edge id=":1765365768_2" function="internal">
        <lane id=":1765365768_2_0" index="0" allow="pedestrian delivery bicycle" speed="5.56" length="5.09" shape="105.33,58.07 105.26,59.43 105.66,60.50 106.52,61.29 107.85,61.79"/>
    </edge>
    <edge id=":1765365768_3" function="internal">
        <lane id=":1765365768_3_0" index="0" allow="pedestrian delivery bicycle" speed="5.56" length="9.08" shape="105.33,58.07 104.57,61.46 103.83,64.01 103.11,65.71 102.41,66.58"/>
    </edge>
    <edge id=":1765365768_4" function="internal">
        <lane id=":1765365768_4_0" index="0" allow="pedestrian delivery bicycle" speed="5.56" length="8.96" shape="98.42,65.36 99.59,64.26 100.61,62.57 101.48,60.29 102.20,57.43"/>
    </edge>
    <edge id=":1765365768_5" function="internal">
        <lane id=":1765365768_5_0" index="0" allow="pedestrian delivery bicycle" speed="5.56" length="10.28" shape="98.42,65.36 101.45,63.55 104.03,62.35 106.16,61.76 107.85,61.79"/>
    </edge>
    <edge id=":1765365778_0" function="internal">
        <lane id=":1765365778_0_0" index="0" allow="pedestrian delivery bicycle" speed="5.56" length="5.04" shape="98.44,81.79 97.05,81.72 95.98,82.10 95.22,82.94 94.78,84.25"/>
    </edge>
    <edge id=":1765365778_1" function="internal">
        <lane id=":1765365778_1_0" index="0" allow="pedestrian delivery bicycle" speed="5.56" length="10.27" shape="98.44,81.79 95.77,80.85 94.07,79.29 93.33,77.10 93.55,74.28"/>
    </edge>
    <edge id=":1765365778_2" function="internal">
        <lane id=":1765365778_2_0" index="0" allow="pedestrian delivery bicycle" speed="5.56" length="5.03" shape="96.67,74.98 96.56,76.36 96.93,77.43 97.76,78.20 99.06,78.66"/>
    </edge>
    <edge id=":1765365778_3" function="internal">
        <lane id=":1765365778_3_0" index="0" allow="pedestrian delivery bicycle" speed="5.56" length="9.46" shape="96.67,74.98 94.78,84.25"/>
    </edge>
    <edge id=":1765365778_4" function="internal">
        <lane id=":1765365778_4_0" index="0" allow="pedestrian delivery bicycle" speed="5.56" length="9.57" shape="91.63,83.66 93.55,74.28"/>
    </edge>
    <edge id=":1765365778_5" function="internal">
        <lane id=":1765365778_5_0" index="0" allow="pedestrian delivery bicycle" speed="5.56" length="10.25" shape="91.63,83.66 92.53,81.00 94.07,79.28 96.25,78.50 99.06,78.66"/>
    </edge>
    <edge id=":1765365787_0" function="internal">
        <lane id=":1765365787_0_0" index="0" disallow="tram rail_urban rail rail_electric rail_fast ship" speed="8.33" length="19.05" shape="165.39,89.96 162.35,108.77"/>
    </edge>
    <edge id=":1765365787_1" function="internal">
        <lane id=":1765365787_1_0" index="0" allow="pedestrian delivery bicycle" speed="6.95" length="18.29" shape="165.39,89.96 164.25,96.86 162.57,101.63 160.34,104.26 157.58,104.75"/>
    </edge>
    <edge id=":1765365787_2" function="internal">
        <lane id=":1765365787_2_0" index="0" allow="pedestrian delivery bicycle" speed="6.95" length="12.92" shape="158.18,101.61 159.43,101.07 160.51,98.94 161.43,95.23 162.18,89.93"/>
    </edge>
    <edge id=":1765365787_3" function="internal">
        <lane id=":1765365787_3_0" index="0" allow="pedestrian delivery bicycle" speed="6.95" length="9.38" shape="158.18,101.61 160.39,102.43 161.82,103.89 162.47,106.01 162.35,108.77"/>
    </edge>
    <edge id=":2406170677_0" function="internal">
        <lane id=":2406170677_0_0" index="0" disallow="tram rail_urban rail rail_electric rail_fast ship" speed="9.72" length="0.31" shape="298.36,29.78 298.26,29.48"/>
    </edge>
    <edge id=":2406170677_1" function="internal">
        <lane id=":2406170677_1_0" index="0" disallow="tram rail_urban rail rail_electric rail_fast ship" speed="9.72" length="0.27" shape="301.33,28.57 301.41,28.82"/>
    </edge>
    <edge id=":260690029_0" function="internal">
        <lane id=":260690029_0_0" index="0" disallow="tram rail_urban rail rail_electric rail_fast ship" speed="8.33" length="9.08" shape="226.42,152.14 223.94,152.54 222.20,153.62 221.19,155.40 220.90,157.86"/>
    </edge>
    <edge id=":260690029_1" function="internal">
        <lane id=":260690029_1_0" index="0" disallow="tram rail_urban rail rail_electric rail_fast ship" speed="8.33" length="11.74" shape="226.42,152.14 223.17,152.17 220.55,152.13 217.92,151.97 214.69,151.69"/>
    </edge>
    <edge id=":260690029_2" function="internal">
        <lane id=":260690029_2_0" index="0" disallow="tram rail_urban rail rail_electric rail_fast ship" speed="12.66" length="9.08" shape="220.75,143.35 221.08,145.84 222.13,147.60 223.89,148.63 226.35,148.94"/>
    </edge>
    <edge id=":260690029_3" function="internal">
        <lane id=":260690029_3_0" index="0" disallow="tram rail_urban rail rail_electric rail_fast ship" speed="8.33" length="14.51" shape="220.75,143.35 220.90,157.86"/>
    </edge>
    <edge id=":260690029_4" function="internal">
        <lane id=":260690029_4_0" index="0" disallow="tram rail_urban rail rail_electric rail_fast ship" speed="8.33" length="11.84" shape="220.75,143.35 220.35,147.21 219.20,149.89 217.32,151.38 214.69,151.69"/>
    </edge>
    <edge id=":260690029_5" function="internal">
        <lane id=":260690029_5_0" index="0" disallow="tram rail_urban rail rail_electric rail_fast ship" speed="15.45" length="11.38" shape="214.98,148.68 226.35,148.94"/>
    </edge>
    <edge id=":260690029_6" function="internal">
        <lane id=":260690029_6_0" index="0" disallow="tram rail_urban rail rail_electric rail_fast ship" speed="11.11" length="12.09" shape="214.98,148.68 217.48,149.39 219.30,151.16 220.44,153.98 220.90,157.86"/>
    </edge>
    <edge id=":260693033_0" function="internal">
        <lane id=":260693033_0_0" index="0" disallow="tram rail_urban rail rail_electric rail_fast ship" speed="8.33" length="9.27" shape="113.56,256.15 112.01,254.26 110.15,253.27 108.01,253.18 105.57,253.99"/>
    </edge>
    <edge id=":260693033_1" function="internal">
        <lane id=":260693033_1_0" index="0" disallow="tram rail_urban rail rail_electric rail_fast ship" speed="8.33" length="14.27" shape="113.56,256.15 106.71,243.63"/>
    </edge>
    <edge id=":260693033_2" function="internal">
        <lane id=":260693033_2_0" index="0" disallow="tram rail_urban rail rail_electric rail_fast ship" speed="8.33" length="14.02" shape="109.58,242.21 116.30,254.50"/>
    </edge>
    <edge id=":260693033_3" function="internal">
        <lane id=":260693033_3_0" index="0" disallow="tram rail_urban rail rail_electric rail_fast ship" speed="8.33" length="14.22" shape="109.58,242.21 110.80,245.91 110.54,249.11 108.80,251.80 105.57,253.99"/>
    </edge>
    <edge id=":260693033_4" function="internal">
        <lane id=":260693033_4_0" index="0" disallow="tram rail_urban rail rail_electric rail_fast ship" speed="8.33" length="9.03" shape="104.16,251.12 106.21,249.73 107.32,248.02 107.49,245.98 106.71,243.63"/>
    </edge>
    <edge id=":260693033_5" function="internal">
        <lane id=":260693033_5_0" index="0" disallow="tram rail_urban rail rail_electric rail_fast ship" speed="8.33" length="14.11" shape="104.16,251.12 107.85,249.90 111.10,250.06 113.92,251.59 116.30,254.50"/>
    </edge>
    <edge id=":3441367204_0" function="internal">
        <lane id=":3441367204_0_0" index="0" allow="bicycle" speed="6.95" length="3.02" shape="344.81,232.75 343.96,232.49 343.36,232.37 342.74,232.36 341.85,232.42"/>
    </edge>
    <edge id=":3441367204_1" function="internal">
        <lane id=":3441367204_1_0" index="0" allow="bicycle" speed="6.95" length="15.47" shape="344.81,232.75 339.19,230.56 337.05,228.85 338.39,227.62 343.21,226.88"/>
    </edge>
    <edge id=":3441367204_2" function="internal">
        <lane id=":3441367204_2_0" index="0" disallow="tram rail_urban rail rail_electric rail_fast ship" speed="8.33" length="1.79" shape="343.55,231.16 341.77,231.32"/>
    </edge>
    <edge id=":3441367204_3" function="internal">
        <lane id=":3441367204_3_0" index="0" disallow="tram rail_urban rail rail_electric rail_fast ship" speed="8.33" length="1.76" shape="341.54,228.13 343.29,227.98"/>
    </edge>
    <edge id=":3441367205_0" function="internal">
        <lane id=":3441367205_0_0" index="0" allow="pedestrian bicycle" speed="2.78" length="4.98" width="2.00" shape="354.29,235.47 353.85,230.51"/>
    </edge>
    <edge id=":3441367205_1" function="internal">
        <lane id=":3441367205_1_0" index="0" allow="pedestrian bicycle" speed="2.78" length="3.68" width="2.00" shape="352.00,233.19 352.88,232.95 353.48,232.42 353.81,231.61 353.85,230.51"/>
    </edge>
    <edge id=":3441367206_0" function="internal">
        <lane id=":3441367206_0_0" index="0" allow="bicycle" speed="8.33" length="3.43" width="1.00" shape="345.03,236.24 345.00,232.82"/>
    </edge>
    <edge id=":3441367206_1" function="internal">
        <lane id=":3441367206_1_0" index="0" disallow="tram rail_urban rail rail_electric rail_fast ship" speed="11.11" length="2.57" shape="346.13,236.16 345.94,233.60"/>
    </edge>
    <edge id=":3441367206_2" function="internal">
        <lane id=":3441367206_2_0" index="0" allow="pedestrian bicycle" speed="6.94" length="6.93" width="2.00" shape="346.13,236.16 346.42,235.10 347.46,234.26 349.26,233.63 351.80,233.21"/>
    </edge>
    <edge id=":3441367206_3" function="internal">
        <lane id=":3441367206_3_0" index="0" allow="pedestrian bicycle" speed="6.94" length="2.95" width="2.00" shape="349.13,233.37 349.44,233.78 350.12,233.71 350.98,233.42 351.80,233.21"/>
    </edge>
    <edge id=":3441367206_4" function="internal">
        <lane id=":3441367206_4_0" index="0" disallow="tram rail_urban rail rail_electric rail_fast ship" speed="11.11" length="2.57" shape="349.13,233.37 349.32,235.94"/>
    </edge>
    <edge id=":3441367206_5" function="internal">
        <lane id=":3441367206_5_0" index="0" allow="bicycle" speed="8.33" length="3.39" width="1.00" shape="348.04,233.45 347.73,233.82 346.90,233.63 345.89,233.19 345.00,232.82"/>
    </edge>
    <edge id=":94260557_0" function="internal">
        <lane id=":94260557_0_0" index="0" disallow="tram rail_urban rail rail_electric rail_fast ship" speed="8.33" length="11.75" shape="161.93,147.74 158.69,147.87 156.05,147.82 153.44,147.54 150.24,147.01"/>
    </edge>
    <edge id=":94260557_1" function="internal">
        <lane id=":94260557_1_0" index="0" disallow="tram rail_urban rail rail_electric rail_fast ship" speed="11.11" length="9.03" shape="157.31,139.19 157.25,141.71 158.03,143.55 159.65,144.74 162.11,145.26"/>
    </edge>
    <edge id=":94260557_2" function="internal">
        <lane id=":94260557_2_0" index="0" disallow="tram rail_urban rail rail_electric rail_fast ship" speed="8.33" length="11.89" shape="157.31,139.19 156.31,143.00 154.81,145.57 152.78,146.91 150.24,147.01"/>
    </edge>
    <edge id=":94260557_3" function="internal">
        <lane id=":94260557_3_0" index="0" speed="13.89" length="11.38" shape="150.82,143.89 153.96,144.43 156.44,144.78 158.93,145.03 162.11,145.26"/>
    </edge>
    <edge id=":cluster_1025692354_126522897_0" function="internal">