<?xml version="1.0" encoding="UTF-8"?>

<!-- generated on Thu Jan 12 20:55:37 2023 by SUMO netconvert Version 0.32.0
<?xml version="1.0" encoding="UTF-8"?>

<configuration xmlns:xsi="http://www.w3.org/2001/XMLSchema-instance" xsi:noNamespaceSchemaLocation="http://sumo.dlr.de/xsd/netconvertConfiguration.xsd">

    <input>
        <type-files value="/home/eegea/tools/sumo-0.32.0/data/typemap/osmNetconvert.typ.xml"/>
        <osm-files value="osm_bbox.osm.xml"/>
    </input>

    <output>
        <output-file value="/tmp/tmpZfN97T/osm.net.xml"/>
        <output.street-names value="true"/>
        <output.original-names value="true"/>
    </output>

    <projection>
        <proj.utm value="true"/>
    </projection>

    <tls_building>
        <tls.discard-simple value="true"/>
        <tls.join value="true"/>
        <tls.guess-signals value="true"/>
        <tls.default-type value="actuated"/>
    </tls_building>

    <ramp_guessing>
        <ramps.guess value="true"/>
    </ramp_guessing>

    <edge_removal>
        <remove-edges.by-vclass value="pedestrian"/>
        <remove-edges.isolated value="true"/>
    </edge_removal>

    <processing>
        <no-turnarounds value="true"/>
        <geometry.remove value="true"/>
        <roundabouts.guess value="true"/>
        <junctions.join value="true"/>
        <junctions.corner-detail value="5"/>
    </processing>

    <report>
        <verbose value="true"/>
    </report>

</configuration>
-->

<net version="0.27" junctionCornerDetail="5" xmlns:xsi="http://www.w3.org/2001/XMLSchema-instance" xsi:noNamespaceSchemaLocation="http://sumo.dlr.de/xsd/net_file.xsd">

    <location netOffset="-385558.30,-5818654.51" convBoundary="0.00,0.00,619.08,535.23" origBoundary="13.313829,52.505942,13.322859,52.510841" projParameter="+proj=utm +zone=33 +ellps=WGS84 +datum=WGS84 +units=m +no_defs"/>

    <type id="highway.bridleway" priority="1" numLanes="1" speed="2.78" allow="pedestrian" oneway="1" width="2.00"/>
    <type id="highway.bus_guideway" priority="1" numLanes="1" speed="8.33" allow="bus" oneway="1"/>
    <type id="highway.cycleway" priority="1" numLanes="1" speed="5.56" allow="bicycle" oneway="0" width="1.00"/>
    <type id="highway.footway" priority="1" numLanes="1" speed="2.78" allow="pedestrian" oneway="1" width="2.00"/>
    <type id="highway.ford" priority="1" numLanes="1" speed="2.78" allow="army" oneway="0"/>
    <type id="highway.living_street" priority="3" numLanes="1" speed="2.78" disallow="tram rail_urban rail rail_electric ship" oneway="0"/>
    <type id="highway.motorway" priority="13" numLanes="2" speed="44.44" allow="private emergency authority army vip passenger hov taxi bus coach delivery truck trailer motorcycle evehicle custom1 custom2" oneway="1"/>
    <type id="highway.motorway_link" priority="12" numLanes="1" speed="22.22" allow="private emergency authority army vip passenger hov taxi bus coach delivery truck trailer motorcycle evehicle custom1 custom2" oneway="1"/>
    <type id="highway.path" priority="1" numLanes="1" speed="2.78" allow="bicycle pedestrian" oneway="1" width="2.00"/>
    <type id="highway.pedestrian" priority="1" numLanes="1" speed="2.78" allow="pedestrian" oneway="1" width="2.00"/>
    <type id="highway.primary" priority="9" numLanes="2" speed="27.78" disallow="tram rail_urban rail rail_electric ship" oneway="0"/>
    <type id="highway.primary_link" priority="8" numLanes="1" speed="22.22" disallow="tram rail_urban rail rail_electric ship" oneway="0"/>
    <type id="highway.raceway" priority="14" numLanes="2" speed="83.33" allow="vip" oneway="0"/>
    <type id="highway.residential" priority="4" numLanes="1" speed="13.89" disallow="tram rail_urban rail rail_electric ship" oneway="0"/>
    <type id="highway.secondary" priority="7" numLanes="2" speed="27.78" disallow="tram rail_urban rail rail_electric ship" oneway="0"/>
    <type id="highway.secondary_link" priority="6" numLanes="1" speed="22.22" disallow="tram rail_urban rail rail_electric ship" oneway="0"/>
    <type id="highway.service" priority="2" numLanes="1" speed="5.56" allow="delivery bicycle pedestrian" oneway="0"/>
    <type id="highway.services" priority="1" numLanes="1" speed="8.33" disallow="tram rail_urban rail rail_electric ship" oneway="0"/>
    <type id="highway.stairs" priority="1" numLanes="1" speed="1.39" allow="pedestrian" oneway="1" width="2.00"/>
    <type id="highway.step" priority="1" numLanes="1" speed="1.39" allow="pedestrian" oneway="1" width="2.00"/>
    <type id="highway.steps" priority="1" numLanes="1" speed="1.39" allow="pedestrian" oneway="1" width="2.00"/>
    <type id="highway.tertiary" priority="6" numLanes="1" speed="22.22" disallow="tram rail_urban rail rail_electric ship" oneway="0"/>
    <type id="highway.tertiary_link" priority="5" numLanes="1" speed="22.22" disallow="tram rail_urban rail rail_electric ship" oneway="0"/>
    <type id="highway.track" priority="1" numLanes="1" speed="5.56" disallow="tram rail_urban rail rail_electric ship" oneway="0"/>
    <type id="highway.trunk" priority="11" numLanes="2" speed="27.78" disallow="tram rail_urban rail rail_electric bicycle pedestrian ship" oneway="0"/>
    <type id="highway.trunk_link" priority="10" numLanes="1" speed="22.22" disallow="tram rail_urban rail rail_electric bicycle pedestrian ship" oneway="0"/>
    <type id="highway.unclassified" priority="5" numLanes="1" speed="13.89" disallow="tram rail_urban rail rail_electric ship" oneway="0"/>
    <type id="highway.unsurfaced" priority="1" numLanes="1" speed="8.33" disallow="tram rail_urban rail rail_electric ship" oneway="0"/>
    <type id="railway.light_rail" priority="15" numLanes="1" speed="27.78" allow="rail_urban" oneway="1"/>
    <type id="railway.preserved" priority="15" numLanes="1" speed="27.78" allow="rail" oneway="1"/>
    <type id="railway.rail" priority="15" numLanes="1" speed="83.33" allow="rail rail_electric" oneway="1"/>
    <type id="railway.subway" priority="15" numLanes="1" speed="27.78" allow="rail_urban" oneway="1"/>
    <type id="railway.tram" priority="15" numLanes="1" speed="13.89" allow="tram" oneway="1"/>

    <edge id=":1840963728_0" function="internal">
        <lane id=":1840963728_0_0" index="0" disallow="tram rail_urban rail rail_electric ship" speed="8.33" length="9.34" shape="448.28,154.63 438.98,155.52"/>
    </edge>
    <edge id=":1840963728_1" function="internal">
        <lane id=":1840963728_1_0" index="0" disallow="tram rail_urban rail rail_electric ship" speed="8.33" length="10.24" shape="448.28,154.63 445.52,154.45 443.44,153.42 442.05,151.54 441.35,148.81"/>
    </edge>
    <edge id=":1840963728_2" function="internal">
        <lane id=":1840963728_2_0" index="0" disallow="tram rail_urban rail rail_electric ship" speed="8.33" length="5.05" shape="444.63,148.44 444.97,149.80 445.66,150.73 446.67,151.25 448.02,151.34"/>
    </edge>
    <edge id=":1840963728_3" function="internal">
        <lane id=":1840963728_3_0" index="0" disallow="tram rail_urban rail rail_electric ship" speed="8.33" length="10.32" shape="444.63,148.44 444.55,151.27 443.58,153.39 441.72,154.81 438.98,155.52"/>
    </edge>
    <edge id=":1840963728_4" function="internal">
        <lane id=":1840963728_4_0" index="0" disallow="tram rail_urban rail rail_electric ship" speed="8.33" length="5.00" shape="438.62,152.24 439.94,151.89 440.84,151.21 441.31,150.18 441.35,148.81"/>
    </edge>
    <edge id=":1840963728_5" function="internal">
        <lane id=":1840963728_5_0" index="0" disallow="tram rail_urban rail rail_electric ship" speed="8.33" length="9.45" shape="438.62,152.24 448.02,151.34"/>
    </edge>
    <edge id=":1980757232_0" function="internal">
        <lane id=":1980757232_0_0" index="0" disallow="tram rail_urban rail rail_electric ship" speed="8.33" length="6.09" shape="286.71,327.75 286.34,326.19 285.55,325.06 284.31,324.36 282.64,324.09"/>
    </edge>
    <edge id=":1980757232_1" function="internal">
        <lane id=":1980757232_1_0" index="0" disallow="tram rail_urban rail rail_electric ship" speed="8.33" length="10.24" shape="286.71,327.75 285.69,317.56"/>
    </edge>
    <edge id=":1980757232_2" function="internal">
        <lane id=":1980757232_2_0" index="0" disallow="tram rail_urban rail rail_electric ship" speed="8.33" length="5.68" shape="286.71,327.75 286.89,324.77 288.00,322.64 288.25,322.48"/>
    </edge>
    <edge id=":1980757232_12" function="internal">
        <lane id=":1980757232_12_0" index="0" speed="8.33" length="5.08" shape="288.25,322.48 290.03,321.37 292.99,320.96"/>
    </edge>
    <edge id=":1980757232_3" function="internal">
        <lane id=":1980757232_3_0" index="0" disallow="tram rail_urban rail rail_electric ship" speed="8.33" length="5.11" shape="292.98,324.26 291.57,324.45 290.61,325.06 290.08,326.06 290.00,327.48"/>
    </edge>
    <edge id=":1980757232_4" function="internal">
        <lane id=":1980757232_4_0" index="0" disallow="tram rail_urban rail rail_electric ship" speed="8.33" length="10.33" shape="292.98,324.26 282.64,324.09"/>
    </edge>
    <edge id=":1980757232_5" function="internal">
        <lane id=":1980757232_5_0" index="0" disallow="tram rail_urban rail rail_electric ship" speed="8.33" length="11.01" shape="292.98,324.26 290.08,323.83 287.90,322.57 286.44,320.48 285.69,317.56"/>
    </edge>
    <edge id=":1980757232_6" function="internal">
        <lane id=":1980757232_6_0" index="0" disallow="tram rail_urban rail rail_electric ship" speed="8.33" length="6.14" shape="288.97,317.18 289.39,318.83 290.20,320.01 291.40,320.72 292.99,320.96"/>
    </edge>
    <edge id=":1980757232_7" function="internal">
        <lane id=":1980757232_7_0" index="0" disallow="tram rail_urban rail rail_electric ship" speed="8.33" length="10.35" shape="288.97,317.18 290.00,327.48"/>
    </edge>
    <edge id=":1980757232_8" function="internal">
        <lane id=":1980757232_8_0" index="0" disallow="tram rail_urban rail rail_electric ship" speed="8.33" length="5.75" shape="288.97,317.18 288.89,320.28 287.80,322.46 287.62,322.57"/>
    </edge>
    <edge id=":1980757232_13" function="internal">
        <lane id=":1980757232_13_0" index="0" speed="8.33" length="5.33" shape="287.62,322.57 285.72,323.73 282.64,324.09"/>
    </edge>
    <edge id=":1980757232_9" function="internal">
        <lane id=":1980757232_9_0" index="0" disallow="tram rail_urban rail rail_electric ship" speed="8.33" length="5.18" shape="282.73,320.79 284.17,320.63 285.15,320.03 285.65,319.01 285.69,317.56"/>
    </edge>
    <edge id=":1980757232_10" function="internal">
        <lane id=":1980757232_10_0" index="0" disallow="tram rail_urban rail rail_electric ship" speed="8.33" length="10.26" shape="282.73,320.79 292.99,320.96"/>
    </edge>
    <edge id=":1980757232_11" function="internal">
        <lane id=":1980757232_11_0" index="0" disallow="tram rail_urban rail rail_electric ship" speed="8.33" length="11.00" shape="282.73,320.79 285.71,321.28 287.91,322.56 289.34,324.62 290.00,327.48"/>
    </edge>
    <edge id=":26704485_0" function="internal">
        <lane id=":26704485_0_0" index="0" disallow="tram rail_urban rail rail_electric ship" speed="8.33" length="10.39" shape="431.39,318.24 421.07,319.44"/>
    </edge>
    <edge id=":26704485_1" function="internal">
        <lane id=":26704485_1_0" index="0" disallow="tram rail_urban rail rail_electric ship" speed="8.33" length="13.58" shape="431.39,318.24 427.32,318.14 424.97,316.77 424.36,314.12 425.47,310.20"/>
    </edge>
    <edge id=":26704485_2" function="internal">
        <lane id=":26704485_2_0" index="0" disallow="tram rail_urban rail rail_electric ship" speed="8.33" length="5.82" shape="428.50,311.52 428.02,313.19 428.29,314.33 429.29,314.91 431.03,314.96"/>
    </edge>
    <edge id=":26704485_3" function="internal">
        <lane id=":26704485_3_0" index="0" disallow="tram rail_urban rail rail_electric ship" speed="8.33" length="11.30" shape="428.50,311.52 426.84,314.77 425.04,317.18 423.12,318.74 421.07,319.44"/>
    </edge>
    <edge id=":26704485_4" function="internal">
        <lane id=":26704485_4_0" index="0" disallow="tram rail_urban rail rail_electric ship" speed="8.33" length="7.93" shape="420.63,316.17 421.83,315.68 423.03,314.52 424.25,312.69 425.47,310.20"/>
    </edge>
    <edge id=":26704485_5" function="internal">
        <lane id=":26704485_5_0" index="0" disallow="tram rail_urban rail rail_electric ship" speed="8.33" length="10.47" shape="420.63,316.17 431.03,314.96"/>
    </edge>
    <edge id=":26704492_0" function="internal">
        <lane id=":26704492_0_0" index="0" disallow="tram rail_urban rail rail_electric ship" speed="8.33" length="4.97" shape="250.96,17.24 250.61,15.93 249.92,15.03 248.91,14.55 247.55,14.48"/>
    </edge>
    <edge id=":26704492_1" function="internal">
        <lane id=":26704492_1_0" index="0" disallow="tram rail_urban rail rail_electric ship" speed="8.33" length="7.77" shape="250.96,17.24 250.44,14.50 249.66,12.57 248.59,11.47 247.25,11.20"/>
    </edge>
    <edge id=":26704494_0" function="internal">
        <lane id=":26704494_0_0" index="0" disallow="tram rail_urban rail rail_electric ship" speed="8.33" length="5.12" shape="269.18,177.72 268.82,176.37 268.11,175.45 267.06,174.96 265.66,174.91"/>
    </edge>
    <edge id=":26704494_1" function="internal">
        <lane id=":26704494_1_0" index="0" disallow="tram rail_urban rail rail_electric ship" speed="8.33" length="9.58" shape="269.18,177.72 268.08,168.21"/>
    </edge>
    <edge id=":26704494_2" function="internal">
        <lane id=":26704494_2_0" index="0" disallow="tram rail_urban rail rail_electric ship" speed="8.33" length="10.37" shape="269.18,177.72 269.25,174.88 270.21,172.75 272.07,171.33 274.82,170.62"/>
    </edge>
    <edge id=":26704494_3" function="internal">
        <lane id=":26704494_3_0" index="0" disallow="tram rail_urban rail rail_electric ship" speed="8.33" length="5.01" shape="275.18,173.90 273.85,174.24 272.95,174.93 272.49,175.96 272.46,177.33"/>
    </edge>
    <edge id=":26704494_4" function="internal">
        <lane id=":26704494_4_0" index="0" disallow="tram rail_urban rail rail_electric ship" speed="8.33" length="9.58" shape="275.18,173.90 265.66,174.91"/>
    </edge>
    <edge id=":26704494_5" function="internal">
        <lane id=":26704494_5_0" index="0" disallow="tram rail_urban rail rail_electric ship" speed="8.33" length="5.19" shape="275.18,173.90 272.34,173.81 270.21,172.83"/>
    </edge>
    <edge id=":26704494_12" function="internal">
        <lane id=":26704494_12_0" index="0" speed="8.33" length="5.19" shape="270.21,172.83 268.79,170.96 268.08,168.21"/>
    </edge>
    <edge id=":26704494_6" function="internal">
        <lane id=":26704494_6_0" index="0" disallow="tram rail_urban rail rail_electric ship" speed="8.33" length="5.06" shape="271.36,167.84 271.71,169.19 272.40,170.10 273.44,170.58 274.82,170.62"/>
    </edge>
    <edge id=":26704494_7" function="internal">
        <lane id=":26704494_7_0" index="0" disallow="tram rail_urban rail rail_electric ship" speed="8.33" length="9.55" shape="271.36,167.84 272.46,177.33"/>
    </edge>
    <edge id=":26704494_8" function="internal">
        <lane id=":26704494_8_0" index="0" disallow="tram rail_urban rail rail_electric ship" speed="8.33" length="10.38" shape="271.36,167.84 271.27,170.69 270.29,172.81 268.42,174.22 265.66,174.91"/>
    </edge>
    <edge id=":26704494_9" function="internal">
        <lane id=":26704494_9_0" index="0" disallow="tram rail_urban rail rail_electric ship" speed="8.33" length="5.01" shape="265.32,171.62 266.66,171.29 267.56,170.61 268.04,169.59 268.08,168.21"/>
    </edge>
    <edge id=":26704494_10" function="internal">
        <lane id=":26704494_10_0" index="0" disallow="tram rail_urban rail rail_electric ship" speed="8.33" length="9.55" shape="265.32,171.62 274.82,170.62"/>
    </edge>
    <edge id=":26704494_11" function="internal">
        <lane id=":26704494_11_0" index="0" disallow="tram rail_urban rail rail_electric ship" speed="8.33" length="5.19" shape="265.32,171.62 268.16,171.74 270.29,172.73"/>
    </edge>
    <edge id=":26704494_13" function="internal">
        <lane id=":26704494_13_0" index="0" speed="8.33" length="5.19" shape="270.29,172.73 271.73,174.59 272.46,177.33"/>
    </edge>
    <edge id=":26704545_0" function="internal">
        <lane id=":26704545_0_0" index="0" disallow="tram rail_urban rail rail_electric ship" speed="8.33" length="5.03" shape="135.28,29.22 134.94,27.90 134.25,26.99 133.21,26.51 131.83,26.46"/>
    </edge>
    <edge id=":26704545_1" function="internal">
        <lane id=":26704545_1_0" index="0" disallow="tram rail_urban rail rail_electric ship" speed="11.11" length="6.21" shape="135.28,29.22 134.58,23.05"/>
    </edge>
    <edge id=":26704545_2" function="internal">
        <lane id=":26704545_2_0" index="0" disallow="tram rail_urban rail rail_electric ship" speed="8.33" length="5.02" shape="141.31,25.40 139.98,25.76 139.08,26.45 138.61,27.48 138.56,28.85"/>
    </edge>
    <edge id=":26704545_3" function="internal">
        <lane id=":26704545_3_0" index="0" disallow="tram rail_urban rail rail_electric ship" speed="8.33" length="9.54" shape="141.31,25.40 131.83,26.46"/>
    </edge>
    <edge id=":26704545_4" function="internal">
        <lane id=":26704545_4_0" index="0" disallow="tram rail_urban rail rail_electric ship" speed="11.11" length="7.89" shape="141.31,25.40 138.50,25.55 136.44,25.21 135.14,24.37 134.58,23.05"/>
    </edge>
    <edge id=":26704545_5" function="internal">
        <lane id=":26704545_5_0" index="0" disallow="tram rail_urban rail rail_electric ship" speed="11.11" length="6.22" shape="137.86,22.67 138.56,28.85"/>
    </edge>
    <edge id=":26704545_6" function="internal">
        <lane id=":26704545_6_0" index="0" disallow="tram rail_urban rail rail_electric ship" speed="11.11" length="7.89" shape="137.86,22.67 137.62,24.09 136.53,25.20 134.60,25.99 131.83,26.46"/>
    </edge>
    <edge id=":2705435586_0" function="internal">
        <lane id=":2705435586_0_0" index="0" disallow="tram rail_urban rail rail_electric ship" speed="6.95" length="5.28" shape="462.18,246.46 460.70,246.11 459.47,246.24 458.48,246.87 457.74,247.98"/>
    </edge>
    <edge id=":2705435586_1" function="internal">
        <lane id=":2705435586_1_0" index="0" disallow="tram rail_urban rail rail_electric ship" speed="6.95" length="10.66" shape="462.18,246.46 459.60,245.04 458.15,243.15 457.84,240.79 458.67,237.96"/>
    </edge>
    <edge id=":2705435586_2" function="internal">
        <lane id=":2705435586_2_0" index="0" allow="delivery bicycle pedestrian" speed="6.95" length="5.08" shape="461.67,239.32 461.28,240.67 461.43,241.80 462.12,242.70 463.35,243.38"/>
    </edge>
    <edge id=":2705435586_3" function="internal">
        <lane id=":2705435586_3_0" index="0" disallow="tram rail_urban rail rail_electric ship" speed="8.33" length="9.51" shape="461.67,239.32 457.74,247.98"/>
    </edge>
    <edge id=":2705435586_4" function="internal">
        <lane id=":2705435586_4_0" index="0" disallow="tram rail_urban rail rail_electric ship" speed="8.33" length="9.51" shape="454.73,246.62 458.67,237.96"/>
    </edge>
    <edge id=":2705435586_5" function="internal">
        <lane id=":2705435586_5_0" index="0" allow="delivery bicycle pedestrian" speed="6.95" length="5.05" shape="454.73,246.62 456.21,244.34 458.14,243.04"/>
    </edge>
    <edge id=":2705435586_6" function="internal">
        <lane id=":2705435586_6_0" index="0" speed="6.95" length="5.30" shape="458.14,243.04 460.52,242.72 463.35,243.38"/>
    </edge>
    <edge id=":3066762534_0" function="internal">
        <lane id=":3066762534_0_0" index="0" disallow="tram rail_urban rail rail_electric ship" speed="8.33" length="3.97" shape="71.69,32.30 69.08,35.89"/>
        <lane id=":3066762534_0_1" index="1" disallow="tram rail_urban rail rail_electric ship" speed="8.33" length="3.97" shape="71.69,32.30 68.71,32.61"/>
        <lane id=":3066762534_0_2" index="2" disallow="tram rail_urban rail rail_electric ship" speed="8.33" length="3.97" shape="71.69,32.30 68.35,29.33"/>
    </edge>
    <edge id=":341364250_0" function="internal">
        <lane id=":341364250_0_0" index="0" disallow="tram rail_urban rail rail_electric ship" speed="8.33" length="5.12" shape="175.58,322.37 174.18,322.59 173.23,323.21 172.72,324.23 172.67,325.65"/>
    </edge>
    <edge id=":341364250_1" function="internal">
        <lane id=":341364250_1_0" index="0" disallow="tram rail_urban rail rail_electric ship" speed="8.33" length="6.19" shape="175.58,322.37 169.39,322.39"/>
    </edge>
    <edge id=":341364250_2" function="internal">
        <lane id=":341364250_2_0" index="0" disallow="tram rail_urban rail rail_electric ship" speed="8.33" length="6.14" shape="169.41,319.09 175.55,319.07"/>
    </edge>
    <edge id=":341364250_3" function="internal">
        <lane id=":341364250_3_0" index="0" disallow="tram rail_urban rail rail_electric ship" speed="8.33" length="2.78" shape="169.41,319.09 170.57,319.51 171.50,320.74"/>
    </edge>
    <edge id=":341364250_4" function="internal">
        <lane id=":341364250_4_0" index="0" speed="8.33" length="5.06" shape="171.50,320.74 172.20,322.79 172.67,325.65"/>
    </edge>
    <edge id=":3713441052_0" function="internal">
        <lane id=":3713441052_0_0" index="0" disallow="tram rail_urban rail rail_electric ship" speed="8.33" length="9.50" shape="539.28,69.89 535.29,78.51"/>
    </edge>
    <edge id=":3713441052_1" function="internal">
        <lane id=":3713441052_1_0" index="0" allow="delivery bicycle pedestrian" speed="6.95" length="5.28" shape="539.28,69.89 537.73,72.27 535.80,73.58 535.69,73.59"/>
    </edge>
    <edge id=":3713441052_6" function="internal">
        <lane id=":3713441052_6_0" index="0" speed="6.95" length="5.07" shape="535.69,73.59 533.47,73.82 530.76,72.99"/>
    </edge>
    <edge id=":3713441052_2" function="internal">
        <lane id=":3713441052_2_0" index="0" disallow="tram rail_urban rail rail_electric ship" speed="6.95" length="5.01" shape="532.16,70.01 533.47,70.41 534.60,70.29 535.53,69.66 536.28,68.50"/>
    </edge>
    <edge id=":3713441052_3" function="internal">
        <lane id=":3713441052_3_0" index="0" disallow="tram rail_urban rail rail_electric ship" speed="6.95" length="10.32" shape="532.16,70.01 534.53,71.56 535.84,73.50 536.10,75.81 535.29,78.51"/>
    </edge>
    <edge id=":3713441052_4" function="internal">
        <lane id=":3713441052_4_0" index="0" allow="delivery bicycle pedestrian" speed="6.95" length="5.02" shape="532.30,77.13 532.69,75.82 532.56,74.69 531.92,73.75 530.76,72.99"/>
    </edge>
    <edge id=":3713441052_5" function="internal">
        <lane id=":3713441052_5_0" index="0" disallow="tram rail_urban rail rail_electric ship" speed="8.33" length="9.50" shape="532.30,77.13 536.28,68.50"/>
    </edge>
    <edge id=":3886445946_0" function="internal">
        <lane id=":3886445946_0_0" index="0" disallow="tram rail_urban rail rail_electric ship" speed="8.33" length="10.46" shape="504.24,145.97 499.90,155.48"/>
    </edge>
    <edge id=":3886445946_1" function="internal">
        <lane id=":3886445946_1_0" index="0" disallow="tram rail_urban rail rail_electric ship" speed="8.33" length="11.29" shape="504.24,145.97 502.96,147.80 500.90,149.17 498.08,150.09 494.50,150.55"/>
    </edge>
    <edge id=":3886445946_2" function="internal">
        <lane id=":3886445946_2_0" index="0" disallow="tram rail_urban rail rail_electric ship" speed="8.33" length="7.69" shape="494.31,147.26 496.96,146.96 499.00,146.43 500.42,145.65 501.22,144.64"/>
    </edge>
    <edge id=":3886445946_3" function="internal">
        <lane id=":3886445946_3_0" index="0" disallow="tram rail_urban rail rail_electric ship" speed="8.33" length="13.38" shape="494.31,147.26 498.29,147.56 500.55,149.03 501.09,151.67 499.90,155.48"/>
    </edge>
    <edge id=":3886445946_4" function="internal">
        <lane id=":3886445946_4_0" index="0" disallow="tram rail_urban rail rail_electric ship" speed="8.33" length="5.76" shape="496.91,154.09 497.42,152.45 497.19,151.31 496.21,150.68 494.50,150.55"/>
    </edge>
    <edge id=":3886445946_5" function="internal">
        <lane id=":3886445946_5_0" index="0" disallow="tram rail_urban rail rail_electric ship" speed="8.33" length="10.39" shape="496.91,154.09 501.22,144.64"/>
    </edge>
    <edge id=":3891128658_0" function="internal">
        <lane id=":3891128658_0_0" index="0" disallow="tram rail_urban rail rail_electric ship" speed="6.95" length="5.41" shape="230.16,325.34 229.86,323.78 229.22,322.67 228.23,322.01 226.89,321.81"/>
    </edge>
    <edge id=":3891128658_1" function="internal">
        <lane id=":3891128658_1_0" index="0" disallow="tram rail_urban rail rail_electric ship" speed="6.95" length="10.92" shape="230.16,325.34 230.38,322.30 231.54,320.18 233.63,318.97 236.66,318.67"/>
    </edge>
    <edge id=":3891128658_2" function="internal">
        <lane id=":3891128658_2_0" index="0" allow="delivery bicycle pedestrian" speed="6.95" length="5.14" shape="236.51,321.96 235.09,322.10 234.10,322.67 233.56,323.67 233.45,325.10"/>
    </edge>
    <edge id=":3891128658_3" function="internal">
        <lane id=":3891128658_3_0" index="0" disallow="tram rail_urban rail rail_electric ship" speed="8.33" length="9.62" shape="236.51,321.96 226.89,321.81"/>
    </edge>
    <edge id=":3891128658_4" function="internal">
        <lane id=":3891128658_4_0" index="0" disallow="tram rail_urban rail rail_electric ship" speed="8.33" length="9.82" shape="226.84,318.51 236.66,318.67"/>
    </edge>
    <edge id=":3891128658_5" function="internal">
        <lane id=":3891128658_5_0" index="0" allow="delivery bicycle pedestrian" speed="6.95" length="5.30" shape="226.84,318.51 229.56,318.89 231.56,320.11 231.67,320.29"/>
    </edge>
    <edge id=":3891128658_6" function="internal">
        <lane id=":3891128658_6_0" index="0" speed="6.95" length="5.22" shape="231.67,320.29 232.86,322.18 233.45,325.10"/>
    </edge>
    <edge id=":5003065122_0" function="internal">
        <lane id=":5003065122_0_0" index="0" disallow="tram rail_urban rail rail_electric ship" speed="6.95" length="5.10" shape="60.95,40.03 60.57,38.66 59.86,37.73 58.83,37.24 57.47,37.19"/>
    </edge>
    <edge id=":5003065122_1" function="internal">
        <lane id=":5003065122_1_0" index="0" allow="delivery bicycle pedestrian" speed="6.95" length="5.03" shape="66.92,36.13 65.58,36.48 64.68,37.17 64.23,38.21 64.22,39.59"/>
    </edge>
    <edge id=":5003065122_2" function="internal">
        <lane id=":5003065122_2_0" index="0" disallow="tram rail_urban rail rail_electric ship" speed="8.33" length="9.50" shape="66.92,36.13 57.47,37.19"/>
        <lane id=":5003065122_2_1" index="1" disallow="tram rail_urban rail rail_electric ship" speed="8.33" length="9.50" shape="66.55,32.85 57.11,33.91"/>
        <lane id=":5003065122_2_2" index="2" disallow="tram rail_urban rail rail_electric ship" speed="8.33" length="9.50" shape="66.19,29.57 56.74,30.63"/>
    </edge>
    <edge id=":5198725461_0" function="internal">
        <lane id=":5198725461_0_0" index="0" disallow="tram rail_urban rail rail_electric ship" speed="8.33" length="9.50" shape="366.62,163.64 357.18,164.70"/>
    </edge>
    <edge id=":5198725461_1" function="internal">
        <lane id=":5198725461_1_0" index="0" allow="delivery bicycle pedestrian" speed="6.95" length="5.09" shape="366.62,163.64 363.86,163.54 361.74,162.56"/>
    </edge>
    <edge id=":5198725461_6" function="internal">
        <lane id=":5198725461_6_0" index="0" speed="6.95" length="5.24" shape="361.74,162.56 360.28,160.69 359.48,157.94"/>
    </edge>
    <edge id=":5198725461_2" function="internal">
        <lane id=":5198725461_2_0" index="0" disallow="tram rail_urban rail rail_electric ship" speed="6.95" length="5.16" shape="362.74,157.45 363.14,158.85 363.86,159.80 364.90,160.30 366.25,160.36"/>
    </edge>
    <edge id=":5198725461_3" function="internal">
        <lane id=":5198725461_3_0" index="0" disallow="tram rail_urban rail rail_electric ship" speed="6.95" length="10.51" shape="362.74,157.45 362.76,160.34 361.84,162.52 359.98,163.97 357.18,164.70"/>
    </edge>
    <edge id=":5198725461_4" function="internal">
        <lane id=":5198725461_4_0" index="0" allow="delivery bicycle pedestrian" speed="6.95" length="5.04" shape="356.81,161.42 358.15,161.07 359.05,160.37 359.49,159.33 359.48,157.94"/>
    </edge>
    <edge id=":5198725461_5" function="internal">
        <lane id=":5198725461_5_0" index="0" disallow="tram rail_urban rail rail_electric ship" speed="8.33" length="9.50" shape="356.81,161.42 366.25,160.36"/>
    </edge>
    <edge id=":5218164769_0" function="internal">
        <lane id=":5218164769_0_0" index="0" disallow="tram rail_urban rail rail_electric ship" speed="6.95" length="5.03" shape="58.93,15.48 59.28,16.82 59.97,17.73 61.00,18.21 62.36,18.26"/>
    </edge>
    <edge id=":5218164769_1" function="internal">
        <lane id=":5218164769_1_0" index="0" allow="delivery bicycle pedestrian" speed="6.95" length="5.01" shape="52.92,19.29 54.25,18.95 55.15,18.27 55.61,17.24 55.65,15.86"/>
    </edge>
    <edge id=":5218164769_2" function="internal">
        <lane id=":5218164769_2_0" index="0" disallow="tram rail_urban rail rail_electric ship" speed="8.33" length="9.50" shape="52.92,19.29 62.36,18.26"/>
    </edge>
    <edge id=":5432957656_0" function="internal">
        <lane id=":5432957656_0_0" index="0" disallow="tram rail_urban rail rail_electric ship" speed="8.33" length="9.50" shape="150.20,160.72 149.12,151.28"/>
    </edge>
    <edge id=":5432957656_1" function="internal">
        <lane id=":5432957656_1_0" index="0" allow="delivery bicycle pedestrian" speed="6.95" length="5.29" shape="150.20,160.72 150.28,157.88 151.25,155.75 151.34,155.69"/>
    </edge>
    <edge id=":5432957656_6" function="internal">